leebr
ecf
toronto
edu
lee
brian
subject
wp
pcf
linux
risc
articl
qu
ud
hd
sunb
oc
mq
edu
au
eugen
mpce
mq
edu
au
write
articl
c
yq
csie
nctu
edu
tw
ghhwang
csie
nctu
edu
tw
ghhwang
write
dear
friend
risc
mean
reduc
instruct
set
comput
risc
usual
small
instruct
set
reduc
circuit
complex
increas
clock
rate
high
perform
read
book
comput
architectur
inform
risc
hmm
author
risc
clearli
rememb
read
instruct
set
risc
cpu
rather
larg
differ
address
mode
risc
instruct
set
orthogon
cisc
peopl
say
fun
think
seriou
eugen
macadam
mpce
mq
edu
au
theoret
suppos
reduc
longer
everyon
argu
risc
v
cisc
person
think
cisc
win
take
look
pentium
like
intel
architectur
either
anoth
stori
bye
brian
hojo
lee
hey
excus
miss
could
gif
leebr
ecf
toronto
edu
leebr
eecg
toronto
edu
tri
linux
best
free
un
x
clone
