angcl
nyongwa
cam
org
claud
anger
subject
wp
pcf
linux
risc
articl
c
rx
b
kzp
ecf
toronto
edu
leebr
ecf
toronto
edu
lee
brian
write
articl
qu
ud
hd
sunb
oc
mq
edu
au
eugen
mpce
mq
edu
au
write
articl
c
yq
csie
nctu
edu
tw
ghhwang
csie
nctu
edu
tw
ghhwang
write
dear
friend
risc
mean
reduc
instruct
set
comput
risc
usual
small
instruct
set
reduc
circuit
complex
increas
clock
rate
high
perform
read
book
comput
architectur
inform
risc
hmm
author
risc
clearli
rememb
read
instruct
set
risc
cpu
rather
larg
differ
address
mode
risc
instruct
set
orthogon
cisc
theoret
suppos
reduc
longer
everyon
argu
risc
v
cisc
person
think
cisc
win
take
look
pentium
like
intel
architectur
either
anoth
stori
bye
mean
pentium
better
risc
outsel
first
rememb
intel
cisc
like
pentium
alway
gener
away
best
risc
also
risc
cpu
costli
sold
quantiti
even
order
rememb
read
year
mayb
hypercub
mip
superscallar
reorder
instruct
