leebr
ecf
toronto
edu
lee
brian
subject
wp
pcf
linux
risc
articl
c
w
j
jll
nyongwa
cam
org
angcl
nyongwa
cam
org
claud
anger
write
articl
c
rx
b
kzp
ecf
toronto
edu
leebr
ecf
toronto
edu
lee
brian
write
articl
qu
ud
hd
sunb
oc
mq
edu
au
eugen
mpce
mq
edu
au
write
articl
c
yq
csie
nctu
edu
tw
ghhwang
csie
nctu
edu
tw
ghhwang
write
dear
friend
risc
mean
reduc
instruct
set
comput
risc
usual
small
instruct
set
reduc
circuit
complex
increas
clock
rate
high
perform
read
book
comput
architectur
inform
risc
hmm
author
risc
clearli
rememb
read
instruct
set
risc
cpu
rather
larg
differ
address
mode
risc
instruct
set
orthogon
cisc
theoret
suppos
reduc
longer
everyon
argu
risc
v
cisc
person
think
cisc
win
take
look
pentium
like
intel
architectur
either
anoth
stori
bye
mean
pentium
better
risc
outsel
first
rememb
intel
cisc
like
pentium
alway
gener
away
best
risc
also
risc
cpu
costli
sold
quantiti
even
order
rememb
read
year
mayb
hypercub
mip
superscallar
reorder
instruct
sure
think
mhz
transput
ya
tie
gazillion
togeth
get
mip
newest
kick
anyon
butt
seen
use
much
though
anyway
respond
think
pentium
cisc
better
advanc
risc
e
g
like
alpha
etc
mhz
pentium
approxim
perform
superdup
mhz
alpha
perform
weird
specint
everyon
refer
heard
alpha
still
kick
p
butt
fp
heard
comput
world
sell
lot
chip
like
intel
make
faster
like
intel
winner
like
intel
even
though
sucki
architectur
year
ago
like
intel
make
cisc
chip
superscalar
superduperpipelin
superfast
idea
behind
risc
ideolog
got
cisc
chip
admit
see
advantag
risc
cisc
latest
technolog
gener
behind
suck
rel
speak
may
sound
like
like
intel
say
p
real
kick
butt
pile
si
sio
hope
motorola
realli
catch
k
line
gonna
start
cri
brian
brian
hojo
lee
hey
excus
miss
could
gif
leebr
ecf
toronto
edu
leebr
eecg
toronto
edu
tri
linux
best
free
un
x
clone
