ukrphil
prlhp
prl
philip
co
uk
j
phillip
subject
rumour
exist
number
licens
philip
make
variant
chip
includ
extra
featurf
port
c
bu
make
microcontrol
like
confus
number
philip
product
rang
core
given
differend
number
like
pcf
pcd
someth
