steffi
beckhau
newcastl
ac
uk
beckhau
subject
wp
pcf
linux
risc
articl
qu
ud
hd
sunb
oc
mq
edu
au
eugen
mpce
mq
edu
au
write
articl
c
yq
csie
nctu
edu
tw
ghhwang
csie
nctu
edu
tw
ghhwang
write
dear
friend
risc
mean
reduc
instruct
set
comput
risc
usual
small
instruct
set
reduc
circuit
complex
increas
clock
rate
high
perform
read
book
comput
architectur
inform
risc
hmm
author
risc
clearli
rememb
read
instruct
set
risc
cpu
rather
larg
differ
address
mode
risc
instruct
set
orthogon
cisc
hope
clear
taken
one
lectur
note
altern
approach
cisc
adopt
mani
recent
year
come
known
risc
reduc
instruct
set
comput
characteris
simpli
simpler
faster
simplifi
design
e
g
reduc
varieti
instruct
address
mode
hardwar
design
run
faster
even
cost
need
instruct
task
done
quickli
simpler
faster
design
typic
risc
processor
provid
larg
number
regist
e
g
perform
data
oper
regist
provid
address
mode
e
g
immedi
regist
offset
allow
load
store
oper
access
memori
use
instruct
format
support
data
type
e
g
integ
unsign
float
steffi
beckhau
janet
steffi
beckhau
uk
ac
newcastl
odd
million
one
someth
occur
chanc
