dsiegel
optima
cs
arizona
edu
seagul
subject
wp
pcf
linux
risc
risc
mean
reduc
instruct
set
comput
risc
usual
small
instruct
set
reduc
circuit
complex
increas
clock
rate
high
perform
read
book
comput
architectur
inform
risc
hmm
author
risc
clearli
rememb
read
instruct
set
risc
cpu
rather
larg
differ
address
mode
risc
instruct
set
orthogon
cisc
thing
might
interest
know
today
risc
processor
true
fewer
instruct
commonli
known
caus
size
execut
swell
case
perform
similar
larger
applic
compromis
mani
risc
processor
today
actual
cross
reduc
instruct
set
complex
one
say
futur
cisc
processor
intel
certainli
prove
want
know
group
dave
subject
wp
pcf
linux
risc
newsgroup
comp
unix
do
unix
comp
sy
ibm
pc
misc
comp
sy
ibm
pc
net
comp
os
ms
window
app
comp
os
ms
window
misc
alt
uu
comp
os
linux
question
comp
app
spreadsheet
comp
misc
alt
os
linux
comp
os
linux
man
linux
refer
qu
ud
hd
sunb
oc
mq
edu
au
articl
qu
ud
hd
sunb
oc
mq
edu
au
eugen
mpce
mq
edu
au
articl
c
yq
csie
nctu
edu
tw
ghhwang
csie
nctu
edu
tw
ghhwang
write
dear
friend
risc
mean
reduc
instruct
set
comput
risc
usual
small
instruct
set
reduc
circuit
complex
increas
clock
rate
high
perform
read
book
comput
architectur
inform
risc
hmm
author
risc
clearli
rememb
read
instruct
set
risc
cpu
rather
larg
differ
address
mode
risc
instruct
set
orthogon
cisc
peopl
say
fun
think
seriou
eugen
macadam
mpce
mq
edu
au
dave
siegel
ds
presid
rtd
system
network
inc
presid
uofaz
hardwar
comput
knowledg
societi
hack
dsiegel
cs
arizona
edu
dsiegel
hack
arizona
edu
dsiegel
rtd
com
