casper
fwi
uva
nl
casper
h
dik
subject
xsun
find
default
font
sol
joel
zodiac
z
code
com
joel
reymont
write
hi
netter
built
x
r
pl
solari
use
multi
screen
patch
well
r
suno
patch
everyth
build
great
except
error
messag
xsun
give
upon
startup
say
cannot
set
default
font
path
stuff
delet
cannot
set
default
font
fix
suppli
fp
option
complain
font
path
still
complain
font
symlink
usr
lib
place
distribut
live
tri
run
xsun
truss
best
way
log
network
type
truss
open
xsun
open
opt
x
r
lib
x
font
misc
font
dir
rdonli
open
opt
x
r
lib
x
font
misc
font
alia
rdonli
open
opt
x
r
lib
x
font
speedo
font
dir
rdonli
open
opt
x
r
lib
x
font
speedo
font
alia
rdonli
err
enoent
open
opt
x
r
lib
x
font
dpi
font
dir
rdonli
open
opt
x
r
lib
x
font
dpi
font
alia
rdonli
open
opt
x
r
lib
x
font
dpi
font
dir
rdonli
open
opt
x
r
lib
x
font
dpi
font
alia
rdonli
open
opt
x
r
lib
x
font
misc
x
pcf
rdonli
open
opt
x
r
lib
x
font
misc
cursor
pcf
rdonli
give
idea
xsun
thing
font
defin
project
root
done
make
instal
everyth
gone
right
default
even
without
symbol
link
casper
